<?xml version="1.0" encoding="UTF-8"?>

<!-- generated on 2022-05-28 11:37:41 by Eclipse SUMO netedit Version 1.13.0
<configuration xmlns:xsi="http://www.w3.org/2001/XMLSchema-instance" xsi:noNamespaceSchemaLocation="http://sumo.dlr.de/xsd/netconvertConfiguration.xsd">

    <output>
        <output-file value="/home/netero/GR1/week9/line2.net.xml"/>
    </output>

    <processing>
        <offset.disable-normalization value="true"/>
    </processing>

    <junctions>
        <no-internal-links value="false"/>
        <no-turnarounds value="true"/>
    </junctions>

    <report>
        <aggregate-warnings value="5"/>
    </report>

</configuration>
-->

<net version="1.9" junctionCornerDetail="5" limitTurnSpeed="5.50" xmlns:xsi="http://www.w3.org/2001/XMLSchema-instance" xsi:noNamespaceSchemaLocation="http://sumo.dlr.de/xsd/net_file.xsd">

    <location netOffset="0.00,0.00" convBoundary="0.00,100.00,200.00,100.00" origBoundary="10000000000.00,10000000000.00,-10000000000.00,-10000000000.00" projParameter="!"/>

    <edge id=":J0_c0" function="crossing" crossingEdges="E0 -E0">
        <lane id=":J0_c0_0" index="0" allow="pedestrian" speed="1.00" length="6.40" width="4.00" shape="-2.00,96.80 -2.00,103.20"/>
    </edge>
    <edge id=":J0_w0" function="walkingarea">
        <lane id=":J0_w0_0" index="0" allow="pedestrian" speed="1.00" length="2.24" width="4.00" shape="-4.00,96.80 0.00,96.80 0.00,94.80"/>
    </edge>
    <edge id=":J0_w1" function="walkingarea">
        <lane id=":J0_w1_0" index="0" allow="pedestrian" speed="1.00" length="2.24" width="4.00" shape="0.00,105.20 0.00,103.20 -4.00,103.20"/>
    </edge>
    <edge id=":J1_0" function="internal">
        <lane id=":J1_0_0" index="0" disallow="pedestrian" speed="13.89" length="4.00" shape="102.00,101.60 98.00,101.60"/>
    </edge>
    <edge id=":J1_1" function="internal">
        <lane id=":J1_1_0" index="0" disallow="pedestrian" speed="13.89" length="4.00" shape="98.00,98.40 102.00,98.40"/>
    </edge>
    <edge id=":J1_c0" function="crossing" crossingEdges="-E0 E0">
        <lane id=":J1_c0_0" index="0" allow="pedestrian" speed="1.00" length="6.40" width="4.00" shape="100.00,103.20 100.00,96.80"/>
    </edge>
    <edge id=":J1_w0" function="walkingarea">
        <lane id=":J1_w0_0" index="0" allow="pedestrian" speed="1.00" length="2.82" width="4.00" shape="102.00,103.20 98.00,103.20 98.00,105.20 102.00,105.20 102.00,103.20"/>
    </edge>
    <edge id=":J1_w1" function="walkingarea">
        <lane id=":J1_w1_0" index="0" allow="pedestrian" speed="1.00" length="2.82" width="4.00" shape="102.00,96.80 102.00,94.80 98.00,94.80 98.00,96.80 102.00,96.80"/>
    </edge>
    <edge id=":J2_c0" function="crossing" crossingEdges="-E1 E1">
        <lane id=":J2_c0_0" index="0" allow="pedestrian" speed="1.00" length="6.40" width="4.00" shape="202.00,103.20 202.00,96.80"/>
    </edge>
    <edge id=":J2_w0" function="walkingarea">
        <lane id=":J2_w0_0" index="0" allow="pedestrian" speed="1.00" length="2.24" width="4.00" shape="204.00,103.20 200.00,103.20 200.00,105.20"/>
    </edge>
    <edge id=":J2_w1" function="walkingarea">
        <lane id=":J2_w1_0" index="0" allow="pedestrian" speed="1.00" length="2.24" width="4.00" shape="200.00,94.80 200.00,96.80 204.00,96.80"/>
    </edge>

    <edge id="-E0" from="J1" to="J0" priority="-1">
        <lane id="-E0_0" index="0" allow="pedestrian" speed="13.89" length="98.00" width="2.00" shape="98.00,104.20 0.00,104.20"/>
        <lane id="-E0_1" index="1" disallow="pedestrian" speed="13.89" length="98.00" shape="98.00,101.60 0.00,101.60"/>
    </edge>
    <edge id="-E1" from="J2" to="J1" priority="-1">
        <lane id="-E1_0" index="0" allow="pedestrian" speed="13.89" length="98.00" width="2.00" shape="200.00,104.20 102.00,104.20"/>
        <lane id="-E1_1" index="1" disallow="pedestrian" speed="13.89" length="98.00" shape="200.00,101.60 102.00,101.60"/>
    </edge>
    <edge id="E0" from="J0" to="J1" priority="-1">
        <lane id="E0_0" index="0" allow="pedestrian" speed="13.89" length="98.00" width="2.00" shape="0.00,95.80 98.00,95.80"/>
        <lane id="E0_1" index="1" disallow="pedestrian" speed="13.89" length="98.00" shape="0.00,98.40 98.00,98.40"/>
    </edge>
    <edge id="E1" from="J1" to="J2" priority="-1">
        <lane id="E1_0" index="0" allow="pedestrian" speed="13.89" length="98.00" width="2.00" shape="102.00,95.80 200.00,95.80"/>
        <lane id="E1_1" index="1" disallow="pedestrian" speed="13.89" length="98.00" shape="102.00,98.40 200.00,98.40"/>
    </edge>

    <junction id="J0" type="dead_end" x="0.00" y="100.00" incLanes="-E0_0 -E0_1 :J0_w0_0" intLanes="" shape="0.00,100.00 0.00,105.20 0.00,100.00"/>
    <junction id="J1" type="priority" x="100.00" y="100.00" incLanes="-E1_0 -E1_1 E0_0 E0_1 :J1_w0_0" intLanes=":J1_0_0 :J1_1_0 :J1_c0_0" shape="102.00,105.20 102.00,94.80 98.00,94.80 98.00,105.20">
        <request index="0" response="000" foes="100" cont="0"/>
        <request index="1" response="000" foes="100" cont="0"/>
        <request index="2" response="011" foes="011" cont="0"/>
    </junction>
    <junction id="J2" type="dead_end" x="200.00" y="100.00" incLanes="E1_0 E1_1 :J2_w0_0" intLanes="" shape="200.00,100.00 200.00,94.80 200.00,100.00"/>

    <connection from="-E1" to="-E0" fromLane="1" toLane="1" via=":J1_0_0" dir="s" state="M"/>
    <connection from="E0" to="E1" fromLane="1" toLane="1" via=":J1_1_0" dir="s" state="M"/>

    <connection from=":J1_0" to="-E0" fromLane="0" toLane="1" dir="s" state="M"/>
    <connection from=":J1_1" to="E1" fromLane="0" toLane="1" dir="s" state="M"/>

    <connection from=":J0_c0" to=":J0_w1" fromLane="0" toLane="0" dir="s" state="M"/>
    <connection from=":J0_w0" to=":J0_c0" fromLane="0" toLane="0" dir="s" state="m"/>
    <connection from=":J0_w0" to="E0" fromLane="0" toLane="0" dir="s" state="M"/>
    <connection from="-E0" to=":J0_w1" fromLane="0" toLane="0" dir="s" state="M"/>
    <connection from=":J1_c0" to=":J1_w1" fromLane="0" toLane="0" dir="s" state="M"/>
    <connection from=":J1_w0" to=":J1_c0" fromLane="0" toLane="0" dir="s" state="m"/>
    <connection from=":J1_w0" to="-E0" fromLane="0" toLane="0" dir="s" state="M"/>
    <connection from="-E1" to=":J1_w0" fromLane="0" toLane="0" dir="s" state="M"/>
    <connection from=":J1_w1" to="E1" fromLane="0" toLane="0" dir="s" state="M"/>
    <connection from="E0" to=":J1_w1" fromLane="0" toLane="0" dir="s" state="M"/>
    <connection from=":J2_c0" to=":J2_w1" fromLane="0" toLane="0" dir="s" state="M"/>
    <connection from=":J2_w0" to=":J2_c0" fromLane="0" toLane="0" dir="s" state="m"/>
    <connection from=":J2_w0" to="-E1" fromLane="0" toLane="0" dir="s" state="M"/>
    <connection from="E1" to=":J2_w1" fromLane="0" toLane="0" dir="s" state="M"/>
</net>
