<?xml version="1.0" encoding="UTF-8"?>

<!-- generated on 2022-05-28 11:40:10 by Eclipse SUMO netedit Version 1.13.0
-->

<routes xmlns:xsi="http://www.w3.org/2001/XMLSchema-instance" xsi:noNamespaceSchemaLocation="http://sumo.dlr.de/xsd/routes_file.xsd">
    <!-- Routes -->
    <route id="r_0" edges="-E0 E0"/>
    <!-- Vehicles, persons and containers (sorted by depart) -->
    <person id="p_0" depart="0.00">
        <walk route="r_0"/>
    </person>
    <person id="p_1" depart="0.00">
        <walk route="r_0"/>
    </person>
    <person id="p_2" depart="0.00">
        <walk route="r_0"/>
    </person>
</routes>
