<?xml version="1.0" encoding="UTF-8"?>

<!-- generated on Fri 27 May 2022 07:38:17 AM PDT by Eclipse SUMO netedit Version 1.4.0
<configuration xmlns:xsi="http://www.w3.org/2001/XMLSchema-instance" xsi:noNamespaceSchemaLocation="http://sumo.dlr.de/xsd/netconvertConfiguration.xsd">

    <input>
        <sumo-net-file value="/home/hoangnv/omnetpp-6.0/workspace1/VANETTutorials/simulations/ex9/line.net.xml"/>
    </input>

    <output>
        <output-file value="/home/hoangnv/omnetpp-6.0/workspace1/VANETTutorials/simulations/ex9/line.net.xml"/>
    </output>

    <processing>
        <geometry.min-radius.fix.railways value="false"/>
        <geometry.max-grade.fix value="false"/>
        <offset.disable-normalization value="true"/>
        <lefthand value="false"/>
    </processing>

    <junctions>
        <no-internal-links value="false"/>
        <no-turnarounds value="true"/>
        <junctions.corner-detail value="5"/>
        <junctions.limit-turn-speed value="5.5"/>
        <rectangular-lane-cut value="false"/>
    </junctions>

    <pedestrian>
        <walkingareas value="false"/>
    </pedestrian>

    <netedit>
        <route-files value="/home/hoangnv/omnetpp-6.0/workspace1/VANETTutorials/simulations/ex9/path.rou.xml"/>
    </netedit>

    <report>
        <aggregate-warnings value="5"/>
    </report>

</configuration>
-->

<routes xmlns:xsi="http://www.w3.org/2001/XMLSchema-instance" xsi:noNamespaceSchemaLocation="http://sumo.dlr.de/xsd/routes_file.xsd">
    <route edges="gneE7 gneE8 gneE9 gneE6 gneE7 gneE8 gneE9" color="yellow" id="route_0"/>
    <route edges="-gneE9 gneE9 -gneE9 gneE9" color="yellow" id="route_1"/>
    <person id="person_0" depart="0.00">
        <walk route="route_1" arrivalPos="0.00"/>
    </person>
    <person id="person_1" depart="0.00">
        <walk route="route_1" arrivalPos="0.00"/>
    </person>
    <person id="person_2" depart="0.00">
        <walk route="route_1" arrivalPos="0.00"/>
    </person>
    <person id="person_3" depart="0.00">
        <walk route="route_1" arrivalPos="0.00"/>
    </person>
    <person id="person_4" depart="0.00">
        <walk route="route_1" arrivalPos="0.00"/>
    </person>
    <vehicle id="vehicle_0" depart="0.00" color="0,255,185" route="route_0"/>
    <vehicle id="vehicle_1" depart="0.00" color="0,255,185" route="route_0"/>
    <vehicle id="vehicle_2" depart="0.00" color="0,255,185" route="route_0"/>
</routes>
