<?xml version="1.0" encoding="UTF-8"?>

<!-- generated on Wed 11 May 2022 09:52:45 AM PDT by Eclipse SUMO netedit Version 1.4.0
<configuration xmlns:xsi="http://www.w3.org/2001/XMLSchema-instance" xsi:noNamespaceSchemaLocation="http://sumo.dlr.de/xsd/netconvertConfiguration.xsd">

    <input>
        <sumo-net-file value="/home/hoangnv/ocean/gr1/week3/network.net.xml"/>
    </input>

    <output>
        <output-file value="/home/hoangnv/ocean/gr1/week3/network.net.xml"/>
    </output>

    <processing>
        <geometry.min-radius.fix.railways value="false"/>
        <geometry.max-grade.fix value="false"/>
        <offset.disable-normalization value="true"/>
        <lefthand value="false"/>
    </processing>

    <junctions>
        <no-internal-links value="false"/>
        <no-turnarounds value="true"/>
        <junctions.corner-detail value="5"/>
        <junctions.limit-turn-speed value="5.5"/>
        <rectangular-lane-cut value="false"/>
    </junctions>

    <pedestrian>
        <walkingareas value="false"/>
    </pedestrian>

    <netedit>
        <route-files value="/home/hoangnv/ocean/gr1/week3/pedes.rou.xml"/>
    </netedit>

    <report>
        <aggregate-warnings value="5"/>
    </report>

</configuration>
-->

<net version="1.3" junctionCornerDetail="5" limitTurnSpeed="5.50" xmlns:xsi="http://www.w3.org/2001/XMLSchema-instance" xsi:noNamespaceSchemaLocation="http://sumo.dlr.de/xsd/net_file.xsd">

    <location netOffset="0.00,0.00" convBoundary="-100.00,-100.00,200.00,200.00" origBoundary="-10000000000.00,-10000000000.00,10000000000.00,10000000000.00" projParameter="!"/>

    <edge id=":J18_0" function="internal">
        <lane id=":J18_0_0" index="0" disallow="pedestrian" speed="7.58" length="12.62" shape="-94.80,201.60 -97.77,201.05 -99.90,199.40 -101.17,196.65 -101.60,192.80"/>
    </edge>
    <edge id=":J18_1" function="internal">
        <lane id=":J18_1_0" index="0" disallow="pedestrian" speed="5.99" length="7.49" shape="-98.40,192.80 -98.17,195.25 -97.50,197.00 -96.38,198.05 -94.80,198.40"/>
    </edge>
    <edge id=":J19_0" function="internal">
        <lane id=":J19_0_0" index="0" disallow="pedestrian" speed="13.89" length="16.40" shape="7.20,201.60 -9.20,201.60"/>
    </edge>
    <edge id=":J19_1" function="internal">
        <lane id=":J19_1_0" index="0" disallow="pedestrian" speed="8.42" length="5.47" shape="7.20,201.60 3.35,200.93 2.09,200.00"/>
    </edge>
    <edge id=":J19_6" function="internal">
        <lane id=":J19_6_0" index="0" disallow="pedestrian" speed="8.42" length="10.37" shape="2.09,200.00 0.60,198.90 -1.05,195.52 -1.60,190.80"/>
    </edge>
    <edge id=":J19_2" function="internal">
        <lane id=":J19_2_0" index="0" disallow="pedestrian" speed="7.02" length="10.69" shape="1.60,190.80 1.95,194.12 3.00,196.50 4.75,197.93 7.20,198.40"/>
    </edge>
    <edge id=":J19_3" function="internal">
        <lane id=":J19_3_0" index="0" disallow="pedestrian" speed="8.81" length="17.42" shape="1.60,190.80 0.92,195.53 -1.10,198.90 -4.48,200.92 -9.20,201.60"/>
    </edge>
    <edge id=":J19_4" function="internal">
        <lane id=":J19_4_0" index="0" disallow="pedestrian" speed="7.48" length="12.26" shape="-9.20,198.40 -5.88,197.93 -3.50,196.50 -2.08,194.12 -1.60,190.80"/>
    </edge>
    <edge id=":J19_5" function="internal">
        <lane id=":J19_5_0" index="0" disallow="pedestrian" speed="13.89" length="16.40" shape="-9.20,198.40 7.20,198.40"/>
    </edge>
    <edge id=":J19_w1" function="walkingarea">
        <lane id=":J19_w1_0" index="0" allow="pedestrian" speed="1.00" length="7.07" width="2.00" shape="-3.20,190.80 -5.20,190.80 -9.20,194.80 -9.20,196.80 -7.37,196.63 -5.87,196.13 -4.70,195.30 -3.87,194.13 -3.37,192.63"/>
    </edge>
    <edge id=":J20_0" function="internal">
        <lane id=":J20_0_0" index="0" disallow="pedestrian" speed="13.89" length="14.40" shape="107.20,201.60 92.80,201.60"/>
    </edge>
    <edge id=":J20_1" function="internal">
        <lane id=":J20_1_0" index="0" speed="8.00" length="5.93" shape="107.20,201.60 103.35,201.05 101.60,200.00"/>
    </edge>
    <edge id=":J20_6" function="internal">
        <lane id=":J20_6_0" index="0" speed="8.00" length="8.26" shape="101.60,200.00 100.60,199.40 98.95,196.65 98.40,192.80"/>
    </edge>
    <edge id=":J20_2" function="internal">
        <lane id=":J20_2_0" index="0" disallow="pedestrian" speed="6.51" length="9.03" shape="101.60,192.80 101.95,195.25 103.00,197.00 104.75,198.05 107.20,198.40"/>
    </edge>
    <edge id=":J20_3" function="internal">
        <lane id=":J20_3_0" index="0" disallow="pedestrian" speed="8.00" length="14.19" shape="101.60,192.80 101.05,196.65 99.40,199.40 96.65,201.05 92.80,201.60"/>
    </edge>
    <edge id=":J20_4" function="internal">
        <lane id=":J20_4_0" index="0" speed="6.51" length="9.03" shape="92.80,198.40 95.25,198.05 97.00,197.00 98.05,195.25 98.40,192.80"/>
    </edge>
    <edge id=":J20_5" function="internal">
        <lane id=":J20_5_0" index="0" disallow="pedestrian" speed="13.89" length="14.40" shape="92.80,198.40 107.20,198.40"/>
    </edge>
    <edge id=":J20_w0" function="walkingarea">
        <lane id=":J20_w0_0" index="0" allow="pedestrian" speed="1.00" length="3.20" width="3.20" shape="103.20,192.80 100.00,192.80 100.00,192.80 96.80,192.80"/>
    </edge>
    <edge id=":J21_0" function="internal">
        <lane id=":J21_0_0" index="0" disallow="pedestrian" speed="6.08" length="7.74" shape="201.60,196.80 201.30,198.90 200.40,200.40 198.90,201.30 196.80,201.60"/>
    </edge>
    <edge id=":J21_1" function="internal">
        <lane id=":J21_1_0" index="0" disallow="pedestrian" speed="3.90" length="2.58" shape="196.80,198.40 197.50,198.30 198.00,198.00 198.30,197.50 198.40,196.80"/>
    </edge>
    <edge id=":J22_0" function="internal">
        <lane id=":J22_0_0" index="0" speed="7.02" length="10.69" shape="198.40,107.20 197.93,104.75 196.50,103.00 194.12,101.95 190.80,101.60"/>
    </edge>
    <edge id=":J22_1" function="internal">
        <lane id=":J22_1_0" index="0" disallow="pedestrian" speed="13.89" length="16.40" shape="198.40,107.20 198.40,90.80"/>
    </edge>
    <edge id=":J22_2" function="internal">
        <lane id=":J22_2_0" index="0" disallow="pedestrian" speed="13.89" length="16.40" shape="201.60,90.80 201.60,107.20"/>
    </edge>
    <edge id=":J22_3" function="internal">
        <lane id=":J22_3_0" index="0" speed="8.81" length="17.42" shape="201.60,90.80 200.93,95.52 198.90,98.90 195.52,100.92 190.80,101.60"/>
    </edge>
    <edge id=":J22_4" function="internal">
        <lane id=":J22_4_0" index="0" disallow="pedestrian" speed="7.48" length="12.26" shape="190.80,98.40 194.13,97.92 196.50,96.50 197.93,94.12 198.40,90.80"/>
    </edge>
    <edge id=":J22_5" function="internal">
        <lane id=":J22_5_0" index="0" disallow="pedestrian" speed="8.42" length="15.84" shape="190.80,98.40 195.53,98.95 198.90,100.60 200.92,103.35 201.60,107.20"/>
    </edge>
    <edge id=":J22_w0" function="walkingarea">
        <lane id=":J22_w0_0" index="0" allow="pedestrian" speed="1.00" length="7.07" width="2.00" shape="196.80,90.80 194.80,90.80 190.80,94.80 190.80,96.80 192.63,96.63 194.13,96.13 195.30,95.30 196.13,94.13 196.63,92.63"/>
    </edge>
    <edge id=":J23_0" function="internal">
        <lane id=":J23_0_0" index="0" disallow="pedestrian" speed="5.99" length="7.49" shape="198.40,5.20 198.05,3.62 197.00,2.50 195.25,1.82 192.80,1.60"/>
    </edge>
    <edge id=":J23_1" function="internal">
        <lane id=":J23_1_0" index="0" disallow="pedestrian" speed="13.89" length="10.40" shape="198.40,5.20 198.40,-5.20"/>
    </edge>
    <edge id=":J23_2" function="internal">
        <lane id=":J23_2_0" index="0" disallow="pedestrian" speed="13.89" length="10.40" shape="201.60,-5.20 201.60,5.20"/>
    </edge>
    <edge id=":J23_3" function="internal">
        <lane id=":J23_3_0" index="0" disallow="pedestrian" speed="7.58" length="4.74" shape="201.60,-5.20 201.05,-2.23 200.00,-0.87"/>
    </edge>
    <edge id=":J23_6" function="internal">
        <lane id=":J23_6_0" index="0" disallow="pedestrian" speed="7.58" length="7.88" shape="200.00,-0.87 199.40,-0.10 196.65,1.17 192.80,1.60"/>
    </edge>
    <edge id=":J23_4" function="internal">
        <lane id=":J23_4_0" index="0" disallow="pedestrian" speed="5.99" length="7.49" shape="192.80,-1.60 195.25,-1.83 197.00,-2.50 198.05,-3.63 198.40,-5.20"/>
    </edge>
    <edge id=":J23_5" function="internal">
        <lane id=":J23_5_0" index="0" disallow="pedestrian" speed="7.58" length="12.62" shape="192.80,-1.60 196.65,-1.17 199.40,0.10 201.05,2.23 201.60,5.20"/>
    </edge>
    <edge id=":J23_c0" function="crossing" crossingEdges="E17 E16">
        <lane id=":J23_c0_0" index="0" allow="pedestrian" speed="1.00" length="6.40" width="4.00" shape="196.80,-3.20 196.80,3.20"/>
    </edge>
    <edge id=":J23_w0" function="walkingarea">
        <lane id=":J23_w0_0" index="0" allow="pedestrian" speed="1.00" length="2.24" width="4.00" shape="194.80,5.20 196.80,5.20 198.80,3.20 196.69,4.59 196.36,4.09 195.80,3.70 195.02,3.42 194.02,3.26"/>
    </edge>
    <edge id=":J23_w1" function="walkingarea">
        <lane id=":J23_w1_0" index="0" allow="pedestrian" speed="1.00" length="2.24" width="4.00" shape="198.80,-3.20 196.80,-5.20 194.80,-5.20 194.02,-3.26 195.02,-3.42 195.80,-3.70 196.36,-4.09 196.69,-4.59"/>
    </edge>
    <edge id=":J24_0" function="internal">
        <lane id=":J24_0_0" index="0" disallow="pedestrian" speed="5.99" length="7.49" shape="198.40,-94.80 198.05,-96.38 197.00,-97.50 195.25,-98.18 192.80,-98.40"/>
    </edge>
    <edge id=":J24_1" function="internal">
        <lane id=":J24_1_0" index="0" disallow="pedestrian" speed="7.58" length="12.62" shape="192.80,-101.60 196.65,-101.17 199.40,-99.90 201.05,-97.78 201.60,-94.80"/>
    </edge>
    <edge id=":J25_0" function="internal">
        <lane id=":J25_0_0" index="0" speed="6.51" length="9.03" shape="98.40,-92.80 98.05,-95.25 97.00,-97.00 95.25,-98.05 92.80,-98.40"/>
    </edge>
    <edge id=":J25_1" function="internal">
        <lane id=":J25_1_0" index="0" disallow="pedestrian" speed="8.00" length="14.19" shape="98.40,-92.80 98.95,-96.65 100.60,-99.40 103.35,-101.05 107.20,-101.60"/>
    </edge>
    <edge id=":J25_2" function="internal">
        <lane id=":J25_2_0" index="0" disallow="pedestrian" speed="6.51" length="9.03" shape="107.20,-98.40 104.75,-98.05 103.00,-97.00 101.95,-95.25 101.60,-92.80"/>
    </edge>
    <edge id=":J25_3" function="internal">
        <lane id=":J25_3_0" index="0" speed="13.89" length="14.40" shape="107.20,-98.40 92.80,-98.40"/>
    </edge>
    <edge id=":J25_4" function="internal">
        <lane id=":J25_4_0" index="0" disallow="pedestrian" speed="13.89" length="14.40" shape="92.80,-101.60 107.20,-101.60"/>
    </edge>
    <edge id=":J25_5" function="internal">
        <lane id=":J25_5_0" index="0" disallow="pedestrian" speed="8.00" length="5.93" shape="92.80,-101.60 96.65,-101.05 98.40,-100.00"/>
    </edge>
    <edge id=":J25_6" function="internal">
        <lane id=":J25_6_0" index="0" disallow="pedestrian" speed="8.00" length="8.26" shape="98.40,-100.00 99.40,-99.40 101.05,-96.65 101.60,-92.80"/>
    </edge>
    <edge id=":J29_0" function="internal">
        <lane id=":J29_0_0" index="0" speed="13.89" length="14.40" shape="-101.60,107.20 -101.60,92.80"/>
    </edge>
    <edge id=":J29_1" function="internal">
        <lane id=":J29_1_0" index="0" speed="8.00" length="5.93" shape="-101.60,107.20 -101.05,103.35 -100.00,101.60"/>
    </edge>
    <edge id=":J29_6" function="internal">
        <lane id=":J29_6_0" index="0" speed="8.00" length="8.26" shape="-100.00,101.60 -99.40,100.60 -96.65,98.95 -92.80,98.40"/>
    </edge>
    <edge id=":J29_2" function="internal">
        <lane id=":J29_2_0" index="0" disallow="pedestrian" speed="6.51" length="9.03" shape="-92.80,101.60 -95.25,101.95 -97.00,103.00 -98.05,104.75 -98.40,107.20"/>
    </edge>
    <edge id=":J29_3" function="internal">
        <lane id=":J29_3_0" index="0" speed="8.00" length="14.19" shape="-92.80,101.60 -96.65,101.05 -99.40,99.40 -101.05,96.65 -101.60,92.80"/>
    </edge>
    <edge id=":J29_4" function="internal">
        <lane id=":J29_4_0" index="0" speed="6.51" length="9.03" shape="-98.40,92.80 -98.05,95.25 -97.00,97.00 -95.25,98.05 -92.80,98.40"/>
    </edge>
    <edge id=":J29_5" function="internal">
        <lane id=":J29_5_0" index="0" disallow="pedestrian" speed="13.89" length="14.40" shape="-98.40,92.80 -98.40,107.20"/>
    </edge>
    <edge id=":J29_w0" function="walkingarea">
        <lane id=":J29_w0_0" index="0" allow="pedestrian" speed="1.00" length="7.94" width="3.20" shape="-92.80,103.20 -92.80,100.00 -92.80,100.00 -92.80,96.80 -96.80,92.80 -100.00,92.80 -100.00,92.80 -103.20,92.80"/>
    </edge>
    <edge id=":J31_0" function="internal">
        <lane id=":J31_0_0" index="0" disallow="pedestrian" speed="6.51" length="9.03" shape="-1.60,7.20 -1.95,4.75 -3.00,3.00 -4.75,1.95 -7.20,1.60"/>
    </edge>
    <edge id=":J31_1" function="internal">
        <lane id=":J31_1_0" index="0" speed="13.89" length="12.40" shape="-1.60,7.20 -1.60,-5.20"/>
    </edge>
    <edge id=":J31_2" function="internal">
        <lane id=":J31_2_0" index="0" disallow="pedestrian" speed="7.39" length="6.67" shape="-1.60,7.20 -1.02,4.26 0.52,1.41 0.83,1.11"/>
    </edge>
    <edge id=":J31_12" function="internal">
        <lane id=":J31_12_0" index="0" disallow="pedestrian" speed="7.39" length="5.27" shape="0.83,1.11 2.70,-0.75 5.20,-1.60"/>
    </edge>
    <edge id=":J31_3" function="internal">
        <lane id=":J31_3_0" index="0" speed="5.99" length="7.49" shape="5.20,1.60 3.62,1.95 2.50,3.00 1.82,4.75 1.60,7.20"/>
    </edge>
    <edge id=":J31_4" function="internal">
        <lane id=":J31_4_0" index="0" disallow="pedestrian" speed="13.89" length="12.40" shape="5.20,1.60 -7.20,1.60"/>
    </edge>
    <edge id=":J31_5" function="internal">
        <lane id=":J31_5_0" index="0" speed="6.93" length="10.39" shape="5.20,1.60 2.79,0.99 0.60,-0.60 -0.99,-2.79 -1.60,-5.20"/>
    </edge>
    <edge id=":J31_6" function="internal">
        <lane id=":J31_6_0" index="0" disallow="pedestrian" speed="5.37" length="5.81" shape="1.60,-5.20 1.83,-3.62 2.50,-2.50 3.63,-1.82 5.20,-1.60"/>
    </edge>
    <edge id=":J31_7" function="internal">
        <lane id=":J31_7_0" index="0" speed="13.89" length="12.40" shape="1.60,-5.20 1.60,7.20"/>
    </edge>
    <edge id=":J31_8" function="internal">
        <lane id=":J31_8_0" index="0" disallow="pedestrian" speed="7.39" length="4.74" shape="1.60,-5.20 0.75,-2.70 -0.73,-1.21"/>
    </edge>
    <edge id=":J31_13" function="internal">
        <lane id=":J31_13_0" index="0" disallow="pedestrian" speed="7.39" length="7.20" shape="-0.73,-1.21 -1.41,-0.52 -4.26,1.02 -7.20,1.60"/>
    </edge>
    <edge id=":J31_9" function="internal">
        <lane id=":J31_9_0" index="0" speed="5.99" length="7.49" shape="-7.20,-1.60 -4.75,-1.83 -3.00,-2.50 -1.95,-3.63 -1.60,-5.20"/>
    </edge>
    <edge id=":J31_10" function="internal">
        <lane id=":J31_10_0" index="0" disallow="pedestrian" speed="13.89" length="12.40" shape="-7.20,-1.60 5.20,-1.60"/>
    </edge>
    <edge id=":J31_11" function="internal">
        <lane id=":J31_11_0" index="0" speed="7.80" length="13.44" shape="-7.20,-1.60 -4.07,-0.81 -1.24,1.24 0.81,4.07 1.60,7.20"/>
    </edge>
    <edge id=":J31_w0" function="walkingarea">
        <lane id=":J31_w0_0" index="0" allow="pedestrian" speed="1.00" length="4.24" width="2.00" shape="-7.20,3.20 -7.20,5.20 -5.20,7.20 -3.20,7.20 -3.31,5.98 -3.64,4.98 -4.20,4.20 -4.98,3.64 -5.98,3.31"/>
    </edge>
    <edge id=":J31_w2" function="walkingarea">
        <lane id=":J31_w2_0" index="0" allow="pedestrian" speed="1.00" length="6.46" width="3.20" shape="3.20,-5.20 0.00,-5.20 0.00,-5.20 -3.20,-5.20 -7.20,-3.20 -7.20,0.00 -4.50,-0.24 -2.56,-0.83 -1.00,-1.60 0.56,-2.37 2.50,-2.96"/>
    </edge>
    <edge id=":J33_0" function="internal">
        <lane id=":J33_0_0" index="0" disallow="pedestrian" speed="6.51" length="9.03" shape="98.40,7.20 98.05,4.75 97.00,3.00 95.25,1.95 92.80,1.60"/>
    </edge>
    <edge id=":J33_1" function="internal">
        <lane id=":J33_1_0" index="0" disallow="pedestrian" speed="13.89" length="14.40" shape="98.40,7.20 98.40,-7.20"/>
    </edge>
    <edge id=":J33_2" function="internal">
        <lane id=":J33_2_0" index="0" disallow="pedestrian" speed="8.00" length="5.93" shape="98.40,7.20 98.95,3.35 100.00,1.60"/>
    </edge>
    <edge id=":J33_12" function="internal">
        <lane id=":J33_12_0" index="0" disallow="pedestrian" speed="8.00" length="8.26" shape="100.00,1.60 100.60,0.60 103.35,-1.05 107.20,-1.60"/>
    </edge>
    <edge id=":J33_3" function="internal">
        <lane id=":J33_3_0" index="0" speed="6.51" length="9.03" shape="107.20,1.60 104.75,1.95 103.00,3.00 101.95,4.75 101.60,7.20"/>
    </edge>
    <edge id=":J33_4" function="internal">
        <lane id=":J33_4_0" index="0" disallow="pedestrian" speed="13.89" length="14.40" shape="107.20,1.60 92.80,1.60"/>
    </edge>
    <edge id=":J33_5" function="internal">
        <lane id=":J33_5_0" index="0" disallow="pedestrian" speed="8.00" length="14.19" shape="107.20,1.60 103.35,1.05 100.60,-0.60 98.95,-3.35 98.40,-7.20"/>
    </edge>
    <edge id=":J33_6" function="internal">
        <lane id=":J33_6_0" index="0" disallow="pedestrian" speed="6.51" length="9.03" shape="101.60,-7.20 101.95,-4.75 103.00,-3.00 104.75,-1.95 107.20,-1.60"/>
    </edge>
    <edge id=":J33_7" function="internal">
        <lane id=":J33_7_0" index="0" speed="13.89" length="14.40" shape="101.60,-7.20 101.60,7.20"/>
    </edge>
    <edge id=":J33_8" function="internal">
        <lane id=":J33_8_0" index="0" disallow="pedestrian" speed="8.00" length="5.93" shape="101.60,-7.20 101.05,-3.35 100.00,-1.60"/>
    </edge>
    <edge id=":J33_13" function="internal">
        <lane id=":J33_13_0" index="0" disallow="pedestrian" speed="8.00" length="8.26" shape="100.00,-1.60 99.40,-0.60 96.65,1.05 92.80,1.60"/>
    </edge>
    <edge id=":J33_9" function="internal">
        <lane id=":J33_9_0" index="0" disallow="pedestrian" speed="6.51" length="9.03" shape="92.80,-1.60 95.25,-1.95 97.00,-3.00 98.05,-4.75 98.40,-7.20"/>
    </edge>
    <edge id=":J33_10" function="internal">
        <lane id=":J33_10_0" index="0" disallow="pedestrian" speed="13.89" length="14.40" shape="92.80,-1.60 107.20,-1.60"/>
    </edge>
    <edge id=":J33_11" function="internal">
        <lane id=":J33_11_0" index="0" speed="8.00" length="14.19" shape="92.80,-1.60 96.65,-1.05 99.40,0.60 101.05,3.35 101.60,7.20"/>
    </edge>
    <edge id=":J33_w0" function="walkingarea">
        <lane id=":J33_w0_0" index="0" allow="pedestrian" speed="1.00" length="3.20" width="3.20" shape="96.80,7.20 100.00,7.20 100.00,7.20 103.20,7.20"/>
    </edge>
    <edge id=":gneJ0_0" function="internal">
        <lane id=":gneJ0_0_0" index="0" speed="5.99" length="7.49" shape="-1.60,105.20 -1.95,103.62 -3.00,102.50 -4.75,101.82 -7.20,101.60"/>
    </edge>
    <edge id=":gneJ0_1" function="internal">
        <lane id=":gneJ0_1_0" index="0" disallow="pedestrian" speed="13.89" length="12.40" shape="-1.60,105.20 -1.60,92.80"/>
    </edge>
    <edge id=":gneJ0_2" function="internal">
        <lane id=":gneJ0_2_0" index="0" disallow="pedestrian" speed="6.93" length="5.19" shape="-1.60,105.20 -0.99,102.79 0.60,100.60"/>
    </edge>
    <edge id=":gneJ0_12" function="internal">
        <lane id=":gneJ0_12_0" index="0" disallow="pedestrian" speed="6.93" length="5.19" shape="0.60,100.60 2.79,99.01 5.20,98.40"/>
    </edge>
    <edge id=":gneJ0_3" function="internal">
        <lane id=":gneJ0_3_0" index="0" speed="5.37" length="5.81" shape="5.20,101.60 3.63,101.83 2.50,102.50 1.83,103.62 1.60,105.20"/>
    </edge>
    <edge id=":gneJ0_4" function="internal">
        <lane id=":gneJ0_4_0" index="0" speed="13.89" length="12.40" shape="5.20,101.60 -7.20,101.60"/>
    </edge>
    <edge id=":gneJ0_5" function="internal">
        <lane id=":gneJ0_5_0" index="0" disallow="pedestrian" speed="7.39" length="11.94" shape="5.20,101.60 2.70,100.75 0.52,98.59 -1.02,95.74 -1.60,92.80"/>
    </edge>
    <edge id=":gneJ0_6" function="internal">
        <lane id=":gneJ0_6_0" index="0" disallow="pedestrian" speed="5.99" length="2.46" shape="1.60,92.80 1.83,95.25"/>
    </edge>
    <edge id=":gneJ0_7" function="internal">
        <lane id=":gneJ0_7_0" index="0" speed="13.89" length="12.40" shape="1.60,92.80 1.60,105.20"/>
    </edge>
    <edge id=":gneJ0_8" function="internal">
        <lane id=":gneJ0_8_0" index="0" speed="7.80" length="5.93" shape="1.60,92.80 0.81,95.93 -0.78,98.12"/>
    </edge>
    <edge id=":gneJ0_13" function="internal">
        <lane id=":gneJ0_13_0" index="0" disallow="pedestrian" speed="5.99" length="5.03" shape="1.83,95.25 2.50,97.00 3.63,98.05 5.20,98.40"/>
    </edge>
    <edge id=":gneJ0_14" function="internal">
        <lane id=":gneJ0_14_0" index="0" speed="7.80" length="7.51" shape="-0.78,98.12 -1.24,98.76 -4.07,100.81 -7.20,101.60"/>
    </edge>
    <edge id=":gneJ0_9" function="internal">
        <lane id=":gneJ0_9_0" index="0" disallow="pedestrian" speed="6.51" length="9.03" shape="-7.20,98.40 -4.75,98.05 -3.00,97.00 -1.95,95.25 -1.60,92.80"/>
    </edge>
    <edge id=":gneJ0_10" function="internal">
        <lane id=":gneJ0_10_0" index="0" disallow="pedestrian" speed="13.89" length="12.40" shape="-7.20,98.40 5.20,98.40"/>
    </edge>
    <edge id=":gneJ0_11" function="internal">
        <lane id=":gneJ0_11_0" index="0" speed="7.39" length="11.94" shape="-7.20,98.40 -4.26,98.98 -1.41,100.53 0.75,102.70 1.60,105.20"/>
    </edge>
    <edge id=":gneJ0_c0" function="crossing" crossingEdges="gneE3 gneE1">
        <lane id=":gneJ0_c0_0" index="0" allow="pedestrian" speed="1.00" length="8.40" width="4.00" shape="0.00,103.20 0.00,94.80"/>
    </edge>
    <edge id=":gneJ0_c1" function="crossing" crossingEdges="-gneE5 gneE3">
        <lane id=":gneJ0_c1_0" index="0" allow="pedestrian" speed="1.00" length="9.05" width="4.00" shape="3.20,96.80 -3.20,103.20"/>
    </edge>
    <edge id=":gneJ0_w0" function="walkingarea">
        <lane id=":gneJ0_w0_0" index="0" allow="pedestrian" speed="1.00" length="6.66" width="4.00" shape="-3.20,92.80 -5.20,92.80 -7.20,96.80 -7.20,100.00 -7.20,100.00 -7.20,103.20 -5.20,105.20 -3.20,105.20 -1.79,104.61 -4.61,101.79"/>
    </edge>
    <edge id=":gneJ0_w1" function="walkingarea">
        <lane id=":gneJ0_w1_0" index="0" allow="pedestrian" speed="1.00" length="4.36" width="4.00" shape="-2.00,103.20 0.00,105.20 3.20,105.20 5.20,103.20 5.20,100.00 3.61,100.14 2.31,100.58 1.30,101.30 0.58,102.31 0.14,103.61"/>
    </edge>
    <edge id=":gneJ0_w2" function="walkingarea">
        <lane id=":gneJ0_w2_0" index="0" allow="pedestrian" speed="1.00" length="3.81" width="4.00" shape="4.61,98.21 5.20,96.80 5.20,94.80 3.20,92.80 0.00,92.80 -2.00,94.80 0.14,94.02 0.58,95.02 1.30,95.80 2.31,96.36 3.61,96.69"/>
    </edge>
    <edge id=":gneJ1_0" function="internal">
        <lane id=":gneJ1_0_0" index="0" speed="6.51" length="9.03" shape="98.40,107.20 98.05,104.75 97.00,103.00 95.25,101.95 92.80,101.60"/>
    </edge>
    <edge id=":gneJ1_1" function="internal">
        <lane id=":gneJ1_1_0" index="0" speed="13.89" length="16.40" shape="98.40,107.20 98.40,90.80"/>
    </edge>
    <edge id=":gneJ1_2" function="internal">
        <lane id=":gneJ1_2_0" index="0" disallow="pedestrian" speed="8.00" length="14.19" shape="98.40,107.20 98.95,103.35 100.60,100.60 103.35,98.95 107.20,98.40"/>
    </edge>
    <edge id=":gneJ1_3" function="internal">
        <lane id=":gneJ1_3_0" index="0" speed="6.51" length="9.03" shape="107.20,101.60 104.75,101.95 103.00,103.00 101.95,104.75 101.60,107.20"/>
    </edge>
    <edge id=":gneJ1_4" function="internal">
        <lane id=":gneJ1_4_0" index="0" speed="13.89" length="14.40" shape="107.20,101.60 92.80,101.60"/>
    </edge>
    <edge id=":gneJ1_5" function="internal">
        <lane id=":gneJ1_5_0" index="0" speed="8.42" length="5.47" shape="107.20,101.60 103.35,100.92 102.09,100.00"/>
    </edge>
    <edge id=":gneJ1_12" function="internal">
        <lane id=":gneJ1_12_0" index="0" speed="8.42" length="10.37" shape="102.09,100.00 100.60,98.90 98.95,95.52 98.40,90.80"/>
    </edge>
    <edge id=":gneJ1_6" function="internal">
        <lane id=":gneJ1_6_0" index="0" disallow="pedestrian" speed="7.02" length="10.69" shape="101.60,90.80 101.95,94.12 103.00,96.50 104.75,97.93 107.20,98.40"/>
    </edge>
    <edge id=":gneJ1_7" function="internal">
        <lane id=":gneJ1_7_0" index="0" speed="13.89" length="16.40" shape="101.60,90.80 101.60,107.20"/>
    </edge>
    <edge id=":gneJ1_8" function="internal">
        <lane id=":gneJ1_8_0" index="0" speed="8.42" length="15.84" shape="101.60,90.80 101.05,95.52 99.40,98.90 96.65,100.92 92.80,101.60"/>
    </edge>
    <edge id=":gneJ1_9" function="internal">
        <lane id=":gneJ1_9_0" index="0" speed="7.02" length="10.69" shape="92.80,98.40 95.25,97.92 97.00,96.50 98.05,94.12 98.40,90.80"/>
    </edge>
    <edge id=":gneJ1_10" function="internal">
        <lane id=":gneJ1_10_0" index="0" disallow="pedestrian" speed="13.89" length="14.40" shape="92.80,98.40 107.20,98.40"/>
    </edge>
    <edge id=":gneJ1_11" function="internal">
        <lane id=":gneJ1_11_0" index="0" speed="8.00" length="5.93" shape="92.80,98.40 96.65,98.95 98.40,100.00"/>
    </edge>
    <edge id=":gneJ1_13" function="internal">
        <lane id=":gneJ1_13_0" index="0" speed="8.00" length="8.26" shape="98.40,100.00 99.40,100.60 101.05,103.35 101.60,107.20"/>
    </edge>
    <edge id=":gneJ1_c0" function="crossing" crossingEdges="-gneE5 gneE4">
        <lane id=":gneJ1_c0_0" index="0" allow="pedestrian" speed="1.00" length="10.40" width="4.00" shape="94.80,100.00 105.20,100.00"/>
    </edge>
    <edge id=":gneJ1_w0" function="walkingarea">
        <lane id=":gneJ1_w0_0" index="0" allow="pedestrian" speed="1.00" length="8.72" width="4.00" shape="94.80,102.00 94.80,98.00 92.80,100.00 92.80,103.20 96.80,107.20 100.00,107.20 100.00,107.20 103.20,107.20 107.20,103.20 107.20,100.00 105.20,98.00 105.20,102.00"/>
    </edge>
    <edge id=":gneJ1_w1" function="walkingarea">
        <lane id=":gneJ1_w1_0" index="0" allow="pedestrian" speed="1.00" length="8.81" width="3.20" shape="107.20,96.80 107.20,94.80 103.20,90.80 100.00,90.80 100.00,90.80 96.80,90.80 92.80,94.80 92.80,96.80"/>
    </edge>
    <edge id=":gneJ2_0" function="internal">
        <lane id=":gneJ2_0_0" index="0" disallow="pedestrian" speed="13.89" length="12.40" shape="-101.60,7.20 -101.60,-5.20"/>
    </edge>
    <edge id=":gneJ2_1" function="internal">
        <lane id=":gneJ2_1_0" index="0" speed="7.58" length="12.62" shape="-101.60,7.20 -101.17,3.35 -99.90,0.60 -97.78,-1.05 -94.80,-1.60"/>
    </edge>
    <edge id=":gneJ2_2" function="internal">
        <lane id=":gneJ2_2_0" index="0" speed="5.99" length="7.49" shape="-94.80,1.60 -96.38,1.95 -97.50,3.00 -98.18,4.75 -98.40,7.20"/>
    </edge>
    <edge id=":gneJ2_3" function="internal">
        <lane id=":gneJ2_3_0" index="0" disallow="pedestrian" speed="7.10" length="10.97" shape="-94.80,1.60 -97.77,1.17 -99.90,-0.10 -101.17,-2.23 -101.60,-5.20"/>
    </edge>
    <edge id=":gneJ2_4" function="internal">
        <lane id=":gneJ2_4_0" index="0" speed="5.37" length="5.81" shape="-98.40,-5.20 -98.17,-3.62 -97.50,-2.50 -96.38,-1.82 -94.80,-1.60"/>
    </edge>
    <edge id=":gneJ2_5" function="internal">
        <lane id=":gneJ2_5_0" index="0" speed="13.89" length="12.40" shape="-98.40,-5.20 -98.40,7.20"/>
    </edge>
    <edge id=":gneJ2_c0" function="crossing" crossingEdges="-gneE11 -gneE9">
        <lane id=":gneJ2_c0_0" index="0" allow="pedestrian" speed="1.00" length="9.05" width="4.00" shape="-103.20,-3.20 -96.80,3.20"/>
    </edge>
    <edge id=":gneJ2_w0" function="walkingarea">
        <lane id=":gneJ2_w0_0" index="0" allow="pedestrian" speed="1.00" length="8.23" width="4.00" shape="-101.79,-4.61 -103.20,-5.20 -105.20,-5.20 -103.20,7.20 -100.00,7.20 -100.00,7.20 -96.80,7.20 -94.80,5.20 -94.80,3.20 -95.39,1.79 -97.37,2.97 -99.47,2.27 -101.10,1.10 -102.27,-0.53 -102.97,-2.63"/>
    </edge>
    <edge id=":gneJ2_w1" function="walkingarea">
        <lane id=":gneJ2_w1_0" index="0" allow="pedestrian" speed="1.00" length="5.09" width="3.20" shape="-94.80,0.00 -94.80,-3.20 -96.80,-5.20 -100.00,-5.20 -99.86,-3.61 -99.42,-2.31 -98.70,-1.30 -97.69,-0.58 -96.39,-0.14"/>
    </edge>
    <edge id=":gneJ3_0" function="internal">
        <lane id=":gneJ3_0_0" index="0" disallow="pedestrian" speed="6.08" length="7.74" shape="-101.60,-96.80 -101.30,-98.90 -100.40,-100.40 -98.90,-101.30 -96.80,-101.60"/>
    </edge>
    <edge id=":gneJ3_1" function="internal">
        <lane id=":gneJ3_1_0" index="0" speed="3.90" length="2.58" shape="-96.80,-98.40 -97.50,-98.30 -98.00,-98.00 -98.30,-97.50 -98.40,-96.80"/>
    </edge>
    <edge id=":gneJ3_c0" function="crossing" crossingEdges="-gneE13 -gneE11">
        <lane id=":gneJ3_c0_0" index="0" allow="pedestrian" speed="1.00" length="6.22" width="4.00" shape="-98.80,-103.20 -103.20,-98.80"/>
    </edge>
    <edge id=":gneJ3_w0" function="walkingarea">
        <lane id=":gneJ3_w0_0" index="0" allow="pedestrian" speed="1.00" length="6.32" width="4.00" shape="-97.39,-101.79 -96.80,-103.20 -96.80,-105.20 -105.20,-96.80 -103.20,-96.80 -101.79,-97.39 -103.02,-98.76 -102.49,-100.36 -101.60,-101.60 -100.36,-102.49 -98.76,-103.02"/>
    </edge>
    <edge id=":gneJ3_w1" function="walkingarea">
        <lane id=":gneJ3_w1_0" index="0" allow="pedestrian" speed="1.00" length="2.26" width="3.20" shape="-100.00,-96.80 -96.80,-96.80 -96.80,-96.80 -96.80,-100.00 -97.78,-99.91 -98.58,-99.64 -99.20,-99.20 -99.64,-98.58 -99.91,-97.78"/>
    </edge>
    <edge id=":gneJ4_0" function="internal">