<?xml version="1.0" encoding="UTF-8"?>

<!-- generated on Fri 20 May 2022 08:58:29 AM PDT by Eclipse SUMO netedit Version 1.4.0
<configuration xmlns:xsi="http://www.w3.org/2001/XMLSchema-instance" xsi:noNamespaceSchemaLocation="http://sumo.dlr.de/xsd/netconvertConfiguration.xsd">

    <input>
        <sumo-net-file value="/home/hoangnv/omnetpp-6.0/workspace1/VANETTutorials/simulations/test/square.net.xml"/>
    </input>

    <output>
        <output-file value="/home/hoangnv/omnetpp-6.0/workspace1/VANETTutorials/simulations/test/square.net.xml"/>
    </output>

    <processing>
        <geometry.min-radius.fix.railways value="false"/>
        <geometry.max-grade.fix value="false"/>
        <offset.disable-normalization value="true"/>
        <lefthand value="false"/>
    </processing>

    <junctions>
        <no-internal-links value="false"/>
        <no-turnarounds value="true"/>
        <junctions.corner-detail value="5"/>
        <junctions.limit-turn-speed value="5.5"/>
        <rectangular-lane-cut value="false"/>
    </junctions>

    <pedestrian>
        <walkingareas value="false"/>
    </pedestrian>

    <netedit>
        <route-files value="/home/hoangnv/omnetpp-6.0/workspace1/VANETTutorials/simulations/test/square.rou.xml"/>
    </netedit>

    <report>
        <aggregate-warnings value="5"/>
    </report>

</configuration>
-->

<net version="1.3" junctionCornerDetail="5" limitTurnSpeed="5.50" xmlns:xsi="http://www.w3.org/2001/XMLSchema-instance" xsi:noNamespaceSchemaLocation="http://sumo.dlr.de/xsd/net_file.xsd">

    <location netOffset="0.00,0.00" convBoundary="100.00,-1800.00,5000.00,500.00" origBoundary="-10000000000.00,-10000000000.00,10000000000.00,10000000000.00" projParameter="!"/>

    <edge id=":gneJ10_0" function="internal">
        <lane id=":gneJ10_0_0" index="0" disallow="pedestrian" speed="6.51" length="4.75" shape="398.40,-592.80 398.05,-595.25 397.00,-597.00 396.80,-597.12"/>
    </edge>
    <edge id=":gneJ10_1" function="internal">
        <lane id=":gneJ10_1_0" index="0" disallow="pedestrian" speed="13.89" length="14.40" shape="398.40,-592.80 398.40,-607.20"/>
    </edge>
    <edge id=":gneJ10_6" function="internal">
        <lane id=":gneJ10_6_0" index="0" disallow="pedestrian" speed="6.51" length="4.28" shape="396.80,-597.12 395.25,-598.05 392.80,-598.40"/>
    </edge>
    <edge id=":gneJ10_2" function="internal">
        <lane id=":gneJ10_2_0" index="0" disallow="pedestrian" speed="13.89" length="14.40" shape="401.60,-607.20 401.60,-592.80"/>
    </edge>
    <edge id=":gneJ10_3" function="internal">
        <lane id=":gneJ10_3_0" index="0" disallow="pedestrian" speed="8.00" length="5.93" shape="401.60,-607.20 401.05,-603.35 400.00,-601.60"/>
    </edge>
    <edge id=":gneJ10_7" function="internal">
        <lane id=":gneJ10_7_0" index="0" disallow="pedestrian" speed="8.00" length="8.26" shape="400.00,-601.60 399.40,-600.60 396.65,-598.95 392.80,-598.40"/>
    </edge>
    <edge id=":gneJ10_4" function="internal">
        <lane id=":gneJ10_4_0" index="0" disallow="pedestrian" speed="6.51" length="9.03" shape="392.80,-601.60 395.25,-601.95 397.00,-603.00 398.05,-604.75 398.40,-607.20"/>
    </edge>
    <edge id=":gneJ10_5" function="internal">
        <lane id=":gneJ10_5_0" index="0" disallow="pedestrian" speed="8.00" length="14.19" shape="392.80,-601.60 396.65,-601.05 399.40,-599.40 401.05,-596.65 401.60,-592.80"/>
    </edge>
    <edge id=":gneJ10_c0" function="crossing" crossingEdges="gneE8 -gneE8">
        <lane id=":gneJ10_c0_0" index="0" allow="pedestrian" speed="1.00" length="6.40" width="4.00" shape="403.20,-594.80 396.80,-594.80"/>
    </edge>
    <edge id=":gneJ10_c1" function="crossing" crossingEdges="-gneE47 gneE47">
        <lane id=":gneJ10_c1_0" index="0" allow="pedestrian" speed="1.00" length="6.40" width="4.00" shape="396.80,-605.20 403.20,-605.20"/>
    </edge>
    <edge id=":gneJ10_c2" function="crossing" crossingEdges="-gneE6 gneE6">
        <lane id=":gneJ10_c2_0" index="0" allow="pedestrian" speed="1.00" length="6.40" width="4.00" shape="394.80,-596.80 394.80,-603.20"/>
    </edge>
    <edge id=":gneJ10_w0" function="walkingarea">
        <lane id=":gneJ10_w0_0" index="0" allow="pedestrian" speed="1.00" length="3.30" width="4.00" shape="392.80,-596.80 392.80,-594.80 394.80,-592.80 396.80,-592.80 396.69,-594.02 396.36,-595.02 395.80,-595.80 395.02,-596.36 394.02,-596.69"/>
    </edge>
    <edge id=":gneJ10_w1" function="walkingarea">
        <lane id=":gneJ10_w1_0" index="0" allow="pedestrian" speed="1.00" length="9.03" width="4.00" shape="403.20,-596.80 403.20,-592.80 405.20,-592.80 405.20,-607.20 403.20,-607.20 403.20,-603.20"/>
    </edge>
    <edge id=":gneJ10_w2" function="walkingarea">
        <lane id=":gneJ10_w2_0" index="0" allow="pedestrian" speed="1.00" length="3.30" width="4.00" shape="396.80,-607.20 394.80,-607.20 392.80,-605.20 392.80,-603.20 394.02,-603.31 395.02,-603.64 395.80,-604.20 396.36,-604.98 396.69,-605.98"/>
    </edge>
    <edge id=":gneJ101_0" function="internal">
        <lane id=":gneJ101_0_0" index="0" disallow="pedestrian" speed="13.89" length="0.10" shape="500.00,501.60 500.00,501.60"/>
    </edge>
    <edge id=":gneJ101_1" function="internal">
        <lane id=":gneJ101_1_0" index="0" disallow="pedestrian" speed="13.89" length="0.10" shape="500.00,498.40 500.00,498.40"/>
    </edge>
    <edge id=":gneJ101_c0" function="crossing" crossingEdges="-gneE107 gneE107">
        <lane id=":gneJ101_c0_0" index="0" allow="pedestrian" speed="1.00" length="6.40" width="4.00" shape="502.00,503.20 502.00,496.80"/>
    </edge>
    <edge id=":gneJ101_w0" function="walkingarea">
        <lane id=":gneJ101_w0_0" index="0" allow="pedestrian" speed="1.00" length="2.24" width="4.00" shape="504.00,503.20 500.00,503.20 500.00,505.20 500.00,505.20 500.00,503.20"/>
    </edge>
    <edge id=":gneJ101_w1" function="walkingarea">
        <lane id=":gneJ101_w1_0" index="0" allow="pedestrian" speed="1.00" length="2.24" width="4.00" shape="500.00,496.80 500.00,494.80 500.00,494.80 500.00,496.80 504.00,496.80"/>
    </edge>
    <edge id=":gneJ102_0" function="internal">
        <lane id=":gneJ102_0_0" index="0" disallow="pedestrian" speed="13.89" length="0.10" shape="600.00,501.60 600.00,501.60"/>
    </edge>
    <edge id=":gneJ102_1" function="internal">
        <lane id=":gneJ102_1_0" index="0" disallow="pedestrian" speed="13.89" length="0.10" shape="600.00,498.40 600.00,498.40"/>
    </edge>
    <edge id=":gneJ102_c0" function="crossing" crossingEdges="-gneE108 gneE108">
        <lane id=":gneJ102_c0_0" index="0" allow="pedestrian" speed="1.00" length="6.40" width="4.00" shape="602.00,503.20 602.00,496.80"/>
    </edge>
    <edge id=":gneJ102_w0" function="walkingarea">
        <lane id=":gneJ102_w0_0" index="0" allow="pedestrian" speed="1.00" length="2.24" width="4.00" shape="604.00,503.20 600.00,503.20 600.00,505.20 600.00,505.20 600.00,503.20"/>
    </edge>
    <edge id=":gneJ102_w1" function="walkingarea">
        <lane id=":gneJ102_w1_0" index="0" allow="pedestrian" speed="1.00" length="2.24" width="4.00" shape="600.00,496.80 600.00,494.80 600.00,494.80 600.00,496.80 604.00,496.80"/>
    </edge>
    <edge id=":gneJ103_0" function="internal">
        <lane id=":gneJ103_0_0" index="0" disallow="pedestrian" speed="13.89" length="0.10" shape="700.00,501.60 700.00,501.60"/>
    </edge>
    <edge id=":gneJ103_1" function="internal">
        <lane id=":gneJ103_1_0" index="0" disallow="pedestrian" speed="13.89" length="0.10" shape="700.00,498.40 700.00,498.40"/>
    </edge>
    <edge id=":gneJ103_c0" function="crossing" crossingEdges="-gneE109 gneE109">
        <lane id=":gneJ103_c0_0" index="0" allow="pedestrian" speed="1.00" length="6.40" width="4.00" shape="702.00,503.20 702.00,496.80"/>
    </edge>
    <edge id=":gneJ103_w0" function="walkingarea">
        <lane id=":gneJ103_w0_0" index="0" allow="pedestrian" speed="1.00" length="2.24" width="4.00" shape="704.00,503.20 700.00,503.20 700.00,505.20 700.00,505.20 700.00,503.20"/>
    </edge>
    <edge id=":gneJ103_w1" function="walkingarea">
        <lane id=":gneJ103_w1_0" index="0" allow="pedestrian" speed="1.00" length="2.24" width="4.00" shape="700.00,496.80 700.00,494.80 700.00,494.80 700.00,496.80 704.00,496.80"/>
    </edge>
    <edge id=":gneJ104_0" function="internal">
        <lane id=":gneJ104_0_0" index="0" disallow="pedestrian" speed="13.89" length="0.10" shape="800.00,501.60 800.00,501.60"/>
    </edge>
    <edge id=":gneJ104_1" function="internal">
        <lane id=":gneJ104_1_0" index="0" disallow="pedestrian" speed="13.89" length="0.10" shape="800.00,498.40 800.00,498.40"/>
    </edge>
    <edge id=":gneJ104_c0" function="crossing" crossingEdges="-gneE110 gneE110">
        <lane id=":gneJ104_c0_0" index="0" allow="pedestrian" speed="1.00" length="6.40" width="4.00" shape="802.00,503.20 802.00,496.80"/>
    </edge>
    <edge id=":gneJ104_w0" function="walkingarea">
        <lane id=":gneJ104_w0_0" index="0" allow="pedestrian" speed="1.00" length="2.24" width="4.00" shape="804.00,503.20 800.00,503.20 800.00,505.20 800.00,505.20 800.00,503.20"/>
    </edge>
    <edge id=":gneJ104_w1" function="walkingarea">
        <lane id=":gneJ104_w1_0" index="0" allow="pedestrian" speed="1.00" length="2.24" width="4.00" shape="800.00,496.80 800.00,494.80 800.00,494.80 800.00,496.80 804.00,496.80"/>
    </edge>
    <edge id=":gneJ105_0" function="internal">
        <lane id=":gneJ105_0_0" index="0" disallow="pedestrian" speed="13.89" length="0.10" shape="900.00,501.60 900.00,501.60"/>
    </edge>
    <edge id=":gneJ105_1" function="internal">
        <lane id=":gneJ105_1_0" index="0" disallow="pedestrian" speed="13.89" length="0.10" shape="900.00,498.40 900.00,498.40"/>
    </edge>
    <edge id=":gneJ105_c0" function="crossing" crossingEdges="-gneE111 gneE111">
        <lane id=":gneJ105_c0_0" index="0" allow="pedestrian" speed="1.00" length="6.40" width="4.00" shape="902.00,503.20 902.00,496.80"/>
    </edge>
    <edge id=":gneJ105_w0" function="walkingarea">
        <lane id=":gneJ105_w0_0" index="0" allow="pedestrian" speed="1.00" length="2.24" width="4.00" shape="904.00,503.20 900.00,503.20 900.00,505.20 900.00,505.20 900.00,503.20"/>
    </edge>
    <edge id=":gneJ105_w1" function="walkingarea">
        <lane id=":gneJ105_w1_0" index="0" allow="pedestrian" speed="1.00" length="2.24" width="4.00" shape="900.00,496.80 900.00,494.80 900.00,494.80 900.00,496.80 904.00,496.80"/>
    </edge>
    <edge id=":gneJ106_0" function="internal">
        <lane id=":gneJ106_0_0" index="0" disallow="pedestrian" speed="13.89" length="0.10" shape="1000.00,501.60 1000.00,501.60"/>
    </edge>
    <edge id=":gneJ106_1" function="internal">
        <lane id=":gneJ106_1_0" index="0" disallow="pedestrian" speed="13.89" length="0.10" shape="1000.00,498.40 1000.00,498.40"/>
    </edge>
    <edge id=":gneJ106_c0" function="crossing" crossingEdges="-gneE112 gneE112">
        <lane id=":gneJ106_c0_0" index="0" allow="pedestrian" speed="1.00" length="6.40" width="4.00" shape="1002.00,503.20 1002.00,496.80"/>
    </edge>
    <edge id=":gneJ106_w0" function="walkingarea">
        <lane id=":gneJ106_w0_0" index="0" allow="pedestrian" speed="1.00" length="2.24" width="4.00" shape="1004.00,503.20 1000.00,503.20 1000.00,505.20 1000.00,505.20 1000.00,503.20"/>
    </edge>
    <edge id=":gneJ106_w1" function="walkingarea">
        <lane id=":gneJ106_w1_0" index="0" allow="pedestrian" speed="1.00" length="2.24" width="4.00" shape="1000.00,496.80 1000.00,494.80 1000.00,494.80 1000.00,496.80 1004.00,496.80"/>
    </edge>
    <edge id=":gneJ107_0" function="internal">
        <lane id=":gneJ107_0_0" index="0" disallow="pedestrian" speed="13.89" length="0.10" shape="1100.00,501.60 1100.00,501.60"/>
    </edge>
    <edge id=":gneJ107_1" function="internal">
        <lane id=":gneJ107_1_0" index="0" disallow="pedestrian" speed="13.89" length="0.10" shape="1100.00,498.40 1100.00,498.40"/>
    </edge>
    <edge id=":gneJ107_c0" function="crossing" crossingEdges="-gneE113 gneE113">
        <lane id=":gneJ107_c0_0" index="0" allow="pedestrian" speed="1.00" length="6.40" width="4.00" shape="1102.00,503.20 1102.00,496.80"/>
    </edge>
    <edge id=":gneJ107_w0" function="walkingarea">
        <lane id=":gneJ107_w0_0" index="0" allow="pedestrian" speed="1.00" length="2.24" width="4.00" shape="1104.00,503.20 1100.00,503.20 1100.00,505.20 1100.00,505.20 1100.00,503.20"/>
    </edge>
    <edge id=":gneJ107_w1" function="walkingarea">
        <lane id=":gneJ107_w1_0" index="0" allow="pedestrian" speed="1.00" length="2.24" width="4.00" shape="1100.00,496.80 1100.00,494.80 1100.00,494.80 1100.00,496.80 1104.00,496.80"/>
    </edge>
    <edge id=":gneJ108_0" function="internal">
        <lane id=":gneJ108_0_0" index="0" disallow="pedestrian" speed="13.89" length="0.10" shape="1200.00,501.60 1200.00,501.60"/>
    </edge>
    <edge id=":gneJ108_1" function="internal">
        <lane id=":gneJ108_1_0" index="0" disallow="pedestrian" speed="13.89" length="0.10" shape="1200.00,498.40 1200.00,498.40"/>
    </edge>
    <edge id=":gneJ108_c0" function="crossing" crossingEdges="-gneE114 gneE114">
        <lane id=":gneJ108_c0_0" index="0" allow="pedestrian" speed="1.00" length="6.40" width="4.00" shape="1202.00,503.20 1202.00,496.80"/>
    </edge>
    <edge id=":gneJ108_w0" function="walkingarea">
        <lane id=":gneJ108_w0_0" index="0" allow="pedestrian" speed="1.00" length="2.24" width="4.00" shape="1204.00,503.20 1200.00,503.20 1200.00,505.20 1200.00,505.20 1200.00,503.20"/>
    </edge>
    <edge id=":gneJ108_w1" function="walkingarea">
        <lane id=":gneJ108_w1_0" index="0" allow="pedestrian" speed="1.00" length="2.24" width="4.00" shape="1200.00,496.80 1200.00,494.80 1200.00,494.80 1200.00,496.80 1204.00,496.80"/>
    </edge>
    <edge id=":gneJ109_0" function="internal">
        <lane id=":gneJ109_0_0" index="0" disallow="pedestrian" speed="13.89" length="0.10" shape="1300.00,501.60 1300.00,501.60"/>
    </edge>
    <edge id=":gneJ109_1" function="internal">
        <lane id=":gneJ109_1_0" index="0" disallow="pedestrian" speed="13.89" length="0.10" shape="1300.00,498.40 1300.00,498.40"/>
    </edge>
    <edge id=":gneJ109_c0" function="crossing" crossingEdges="-gneE115 gneE115">
        <lane id=":gneJ109_c0_0" index="0" allow="pedestrian" speed="1.00" length="6.40" width="4.00" shape="1302.00,503.20 1302.00,496.80"/>
    </edge>
    <edge id=":gneJ109_w0" function="walkingarea">
        <lane id=":gneJ109_w0_0" index="0" allow="pedestrian" speed="1.00" length="2.24" width="4.00" shape="1304.00,503.20 1300.00,503.20 1300.00,505.20 1300.00,505.20 1300.00,503.20"/>
    </edge>
    <edge id=":gneJ109_w1" function="walkingarea">
        <lane id=":gneJ109_w1_0" index="0" allow="pedestrian" speed="1.00" length="2.24" width="4.00" shape="1300.00,496.80 1300.00,494.80 1300.00,494.80 1300.00,496.80 1304.00,496.80"/>
    </edge>
    <edge id=":gneJ11_0" function="internal">
        <lane id=":gneJ11_0_0" index="0" disallow="pedestrian" speed="6.51" length="4.75" shape="398.40,-692.80 398.05,-695.25 397.00,-697.00 396.80,-697.12"/>
    </edge>
    <edge id=":gneJ11_1" function="internal">
        <lane id=":gneJ11_1_0" index="0" disallow="pedestrian" speed="13.89" length="14.40" shape="398.40,-692.80 398.40,-707.20"/>
    </edge>
    <edge id=":gneJ11_6" function="internal">
        <lane id=":gneJ11_6_0" index="0" disallow="pedestrian" speed="6.51" length="4.28" shape="396.80,-697.12 395.25,-698.05 392.80,-698.40"/>
    </edge>
    <edge id=":gneJ11_2" function="internal">
        <lane id=":gneJ11_2_0" index="0" disallow="pedestrian" speed="13.89" length="14.40" shape="401.60,-707.20 401.60,-692.80"/>
    </edge>
    <edge id=":gneJ11_3" function="internal">
        <lane id=":gneJ11_3_0" index="0" disallow="pedestrian" speed="8.00" length="5.93" shape="401.60,-707.20 401.05,-703.35 400.00,-701.60"/>
    </edge>
    <edge id=":gneJ11_7" function="internal">
        <lane id=":gneJ11_7_0" index="0" disallow="pedestrian" speed="8.00" length="8.26" shape="400.00,-701.60 399.40,-700.60 396.65,-698.95 392.80,-698.40"/>
    </edge>
    <edge id=":gneJ11_4" function="internal">
        <lane id=":gneJ11_4_0" index="0" disallow="pedestrian" speed="6.51" length="9.03" shape="392.80,-701.60 395.25,-701.95 397.00,-703.00 398.05,-704.75 398.40,-707.20"/>
    </edge>
    <edge id=":gneJ11_5" function="internal">
        <lane id=":gneJ11_5_0" index="0" disallow="pedestrian" speed="8.00" length="14.19" shape="392.80,-701.60 396.65,-701.05 399.40,-699.40 401.05,-696.65 401.60,-692.80"/>
    </edge>
    <edge id=":gneJ11_c0" function="crossing" crossingEdges="gneE47 -gneE47">
        <lane id=":gneJ11_c0_0" index="0" allow="pedestrian" speed="1.00" length="6.40" width="4.00" shape="403.20,-694.80 396.80,-694.80"/>
    </edge>
    <edge id=":gneJ11_c1" function="crossing" crossingEdges="gneE22 -gneE22">
        <lane id=":gneJ11_c1_0" index="0" allow="pedestrian" speed="1.00" length="6.40" width="4.00" shape="396.80,-705.20 403.20,-705.20"/>
    </edge>
    <edge id=":gneJ11_c2" function="crossing" crossingEdges="-gneE7 gneE7">
        <lane id=":gneJ11_c2_0" index="0" allow="pedestrian" speed="1.00" length="6.40" width="4.00" shape="394.80,-696.80 394.80,-703.20"/>
    </edge>
    <edge id=":gneJ11_w0" function="walkingarea">
        <lane id=":gneJ11_w0_0" index="0" allow="pedestrian" speed="1.00" length="3.30" width="4.00" shape="392.80,-696.80 392.80,-694.80 394.80,-692.80 396.80,-692.80 396.69,-694.02 396.36,-695.02 395.80,-695.80 395.02,-696.36 394.02,-696.69"/>
    </edge>
    <edge id=":gneJ11_w1" function="walkingarea">
        <lane id=":gneJ11_w1_0" index="0" allow="pedestrian" speed="1.00" length="9.03" width="4.00" shape="403.20,-696.80 403.20,-692.80 405.20,-692.80 405.20,-707.20 403.20,-707.20 403.20,-703.20"/>
    </edge>
    <edge id=":gneJ11_w2" function="walkingarea">
        <lane id=":gneJ11_w2_0" index="0" allow="pedestrian" speed="1.00" length="3.30" width="4.00" shape="396.80,-707.20 394.80,-707.20 392.80,-705.20 392.80,-703.20 394.02,-703.31 395.02,-703.64 395.80,-704.20 396.36,-704.98 396.69,-705.98"/>
    </edge>
    <edge id=":gneJ110_0" function="internal">
        <lane id=":gneJ110_0_0" index="0" disallow="pedestrian" speed="13.89" length="0.10" shape="1400.00,501.60 1400.00,501.60"/>
    </edge>
    <edge id=":gneJ110_1" function="internal">
        <lane id=":gneJ110_1_0" index="0" disallow="pedestrian" speed="13.89" length="0.10" shape="1400.00,498.40 1400.00,498.40"/>
    </edge>
    <edge id=":gneJ110_c0" function="crossing" crossingEdges="-gneE116 gneE116">
        <lane id=":gneJ110_c0_0" index="0" allow="pedestrian" speed="1.00" length="6.40" width="4.00" shape="1402.00,503.20 1402.00,496.80"/>
    </edge>
    <edge id=":gneJ110_w0" function="walkingarea">
        <lane id=":gneJ110_w0_0" index="0" allow="pedestrian" speed="1.00" length="2.24" width="4.00" shape="1404.00,503.20 1400.00,503.20 1400.00,505.20 1400.00,505.20 1400.00,503.20"/>
    </edge>
    <edge id=":gneJ110_w1" function="walkingarea">
        <lane id=":gneJ110_w1_0" index="0" allow="pedestrian" speed="1.00" length="2.24" width="4.00" shape="1400.00,496.80 1400.00,494.80 1400.00,494.80 1400.00,496.80 1404.00,496.80"/>
    </edge>
    <edge id=":gneJ111_0" function="internal">
        <lane id=":gneJ111_0_0" index="0" disallow="pedestrian" speed="13.89" length="0.10" shape="1500.00,501.60 1500.00,501.60"/>
    </edge>
    <edge id=":gneJ111_1" function="internal">
        <lane id=":gneJ111_1_0" index="0" disallow="pedestrian" speed="13.89" length="0.10" shape="1500.00,498.40 1500.00,498.40"/>
    </edge>
    <edge id=":gneJ111_c0" function="crossing" crossingEdges="-gneE117 gneE117">
        <lane id=":gneJ111_c0_0" index="0" allow="pedestrian" speed="1.00" length="6.40" width="4.00" shape="1502.00,503.20 1502.00,496.80"/>
    </edge>
    <edge id=":gneJ111_w0" function="walkingarea">
        <lane id=":gneJ111_w0_0" index="0" allow="pedestrian" speed="1.00" length="2.24" width="4.00" shape="1504.00,503.20 1500.00,503.20 1500.00,505.20 1500.00,505.20 1500.00,503.20"/>
    </edge>
    <edge id=":gneJ111_w1" function="walkingarea">
        <lane id=":gneJ111_w1_0" index="0" allow="pedestrian" speed="1.00" length="2.24" width="4.00" shape="1500.00,496.80 1500.00,494.80 1500.00,494.80 1500.00,496.80 1504.00,496.80"/>
    </edge>
    <edge id=":gneJ112_0" function="internal">
        <lane id=":gneJ112_0_0" index="0" disallow="pedestrian" speed="13.89" length="0.10" shape="1600.00,501.60 1600.00,501.60"/>
    </edge>
    <edge id=":gneJ112_1" function="internal">
        <lane id=":gneJ112_1_0" index="0" disallow="pedestrian" speed="13.89" length="0.10" shape="1600.00,498.40 1600.00,498.40"/>
    </edge>
    <edge id=":gneJ112_c0" function="crossing" crossingEdges="-gneE118 gneE118">
        <lane id=":gneJ112_c0_0" index="0" allow="pedestrian" speed="1.00" length="6.40" width="4.00" shape="1602.00,503.20 1602.00,496.80"/>
    </edge>
    <edge id=":gneJ112_w0" function="walkingarea">
        <lane id=":gneJ112_w0_0" index="0" allow="pedestrian" speed="1.00" length="2.24" width="4.00" shape="1604.00,503.20 1600.00,503.20 1600.00,505.20 1600.00,505.20 1600.00,503.20"/>
    </edge>
    <edge id=":gneJ112_w1" function="walkingarea">
        <lane id=":gneJ112_w1_0" index="0" allow="pedestrian" speed="1.00" length="2.24" width="4.00" shape="1600.00,496.80 1600.00,494.80 1600.00,494.80 1600.00,496.80 1604.00,496.80"/>
    </edge>
    <edge id=":gneJ113_0" function="internal">
        <lane id=":gneJ113_0_0" index="0" disallow="pedestrian" speed="13.89" length="14.40" shape="1707.20,501.60 1692.80,501.60"/>
    </edge>
    <edge id=":gneJ113_1" function="internal">
        <lane id=":gneJ113_1_0" index="0" disallow="pedestrian" speed="8.00" length="5.93" shape="1707.20,501.60 1703.35,501.05 1701.60,500.00"/>
    </edge>
    <edge id=":gneJ113_6" function="internal">
        <lane id=":gneJ113_6_0" index="0" disallow="pedestrian" speed="8.00" length="8.26" shape="1701.60,500.00 1700.60,499.40 1698.95,496.65 1698.40,492.80"/>
    </edge>
    <edge id=":gneJ113_2" function="internal">
        <lane id=":gneJ113_2_0" index="0" disallow="pedestrian" speed="6.51" length="9.03" shape="1701.60,492.80 1701.95,495.25 1703.00,497.00 1704.75,498.05 1707.20,498.40"/>
    </edge>
    <edge id=":gneJ113_3" function="internal">
        <lane id=":gneJ113_3_0" index="0" disallow="pedestrian" speed="8.00" length="14.19" shape="1701.60,492.80 1701.05,496.65 1699.40,499.40 1696.65,501.05 1692.80,501.60"/>
    </edge>
    <edge id=":gneJ113_4" function="internal">
        <lane id=":gneJ113_4_0" index="0" disallow="pedestrian" speed="6.51" length="4.75" shape="1692.80,498.40 1695.25,498.05 1697.00,497.00 1697.12,496.80"/>
    </edge>
    <edge id=":gneJ113_5" function="internal">
        <lane id=":gneJ113_5_0" index="0" disallow="pedestrian" speed="13.89" length="14.40" shape="1692.80,498.40 1707.20,498.40"/>
    </edge>
    <edge id=":gneJ113_7" function="internal">
        <lane id=":gneJ113_7_0" index="0" disallow="pedestrian" speed="6.51" length="4.28" shape="1697.12,496.80 1698.05,495.25 1698.40,492.80"/>
    </edge>
    <edge id=":gneJ113_c0" function="crossing" crossingEdges="gneE496 -gneE496">
        <lane id=":gneJ113_c0_0" index="0" allow="pedestrian" speed="1.00" length="6.40" width="4.00" shape="1705.20,496.80 1705.20,503.20"/>
    </edge>
    <edge id=":gneJ113_c1" function="crossing" crossingEdges="gneE120 -gneE120">
        <lane id=":gneJ113_c1_0" index="0" allow="pedestrian" speed="1.00" length="6.40" width="4.00" shape="1696.80,494.80 1703.20,494.80"/>
    </edge>
    <edge id=":gneJ113_c2" function="crossing" crossingEdges="-gneE119 gneE119">
        <lane id=":gneJ113_c2_0" index="0" allow="pedestrian" speed="1.00" length="6.40" width="4.00" shape="1694.80,503.20 1694.80,496.80"/>
    </edge>
    <edge id=":gneJ113_w0" function="walkingarea">
        <lane id=":gneJ113_w0_0" index="0" allow="pedestrian" speed="1.00" length="9.03" width="4.00" shape="1696.80,503.20 1692.80,503.20 1692.80,505.20 1707.20,505.20 1707.20,503.20 1703.20,503.20"/>
    </edge>
    <edge id=":gneJ113_w1" function="walkingarea">
        <lane id=":gneJ113_w1_0" index="0" allow="pedestrian" speed="1.00" length="3.30" width="4.00" shape="1707.20,496.80 1707.20,494.80 1705.20,492.80 1703.20,492.80 1703.31,494.02 1703.64,495.02 1704.20,495.80 1704.98,496.36 1705.98,496.69"/>
    </edge>
    <edge id=":gneJ113_w2" function="walkingarea">
        <lane id=":gneJ113_w2_0" index="0" allow="pedestrian" speed="1.00" length="3.30" width="4.00" shape="1696.80,492.80 1694.80,492.80 1692.80,494.80 1692.80,496.80 1694.02,496.69 1695.02,496.36 1695.80,495.80 1696.36,495.02 1696.69,494.02"/>
    </edge>
    <edge id=":gneJ114_0" function="internal">
        <lane id=":gneJ114_0_0" index="0" disallow="pedestrian" speed="13.89" length="0.10" shape="1698.40,400.00 1698.40,400.00"/>
    </edge>
    <edge id=":gneJ114_1" function="internal">
        <lane id=":gneJ114_1_0" index="0" disallow="pedestrian" speed="13.89" length="0.10" shape="1701.60,400.00 1701.60,400.00"/>
    </edge>
    <edge id=":gneJ114_c0" function="crossing" crossingEdges="-gneE120 gneE120">
        <lane id=":gneJ114_c0_0" index="0" allow="pedestrian" speed="1.00" length="6.40" width="4.00" shape="1703.20,398.00 1696.80,398.00"/>
    </edge>
    <edge id=":gneJ114_w0" function="walkingarea">
        <lane id=":gneJ114_w0_0" index="0" allow="pedestrian" speed="1.00" length="2.24" width="4.00" shape="1696.80,400.00 1694.80,400.00 1694.80,400.00 1696.80,400.00 1696.80,396.00"/>
    </edge>
    <edge id=":gneJ114_w1" function="walkingarea">
        <lane id=":gneJ114_w1_0" index="0" allow="pedestrian" speed="1.00" length="2.24" width="4.00" shape="1703.20,396.00 1703.20,400.00 1705.20,400.00 1705.20,400.00 1703.20,400.00"/>
    </edge>
    <edge id=":gneJ115_0" function="internal">
        <lane id=":gneJ115_0_0" index="0" disallow="pedestrian" speed="13.89" length="0.10" shape="1698.40,300.00 1698.40,300.00"/>
    </edge>
    <edge id=":gneJ115_1" function="internal">
        <lane id=":gneJ115_1_0" index="0" disallow="pedestrian" speed="13.89" length="0.10" shape="1701.60,300.00 1701.60,300.00"/>
    </edge>
    <edge id=":gneJ115_c0" function="crossing" crossingEdges="-gneE121 gneE121">
        <lane id=":gneJ115_c0_0" index="0" allow="pedestrian" speed="1.00" length="6.40" width="4.00" shape="1703.20,298.00 1696.80,298.00"/>
    </edge>
    <edge id=":gneJ115_w0" function="walkingarea">
        <lane id=":gneJ115_w0_0" index="0" allow="pedestrian" speed="1.00" length="2.24" width="4.00" shape="1696.80,300.00 1694.80,300.00 1694.80,300.00 1696.80,300.00 1696.80,296.00"/>
    </edge>
    <edge id=":gneJ115_w1" function="walkingarea">
        <lane id=":gneJ115_w1_0" index="0" allow="pedestrian" speed="1.00" length="2.24" width="4.00" shape="1703.20,296.00 1703.20,300.00 1705.20,300.00 1705.20,300.00 1703.20,300.00"/>
    </edge>
    <edge id=":gneJ116_0" function="internal">
        <lane id=":gneJ116_0_0" index="0" disallow="pedestrian" speed="13.89" length="0.10" shape="1698.40,200.00 1698.40,200.00"/>
    </edge>
    <edge id=":gneJ116_1" function="internal">
        <lane id=":gneJ116_1_0" index="0" disallow="pedestrian" speed="13.89" length="0.10" shape="1701.60,200.00 1701.60,200.00"/>
    </edge>
    <edge id=":gneJ116_c0" function="crossing" crossingEdges="-gneE122 gneE122">
        <lane id=":gneJ116_c0_0" index="0" allow="pedestrian" speed="1.00" length="6.40" width="4.00" shape="1703.20,198.00 1696.80,198.00"/>
    </edge>
    <edge id=":gneJ116_w0" function="walkingarea">
        <lane id=":gneJ116_w0_0" index="0" allow="pedestrian" speed="1.00" length="2.24" width="4.00" shape="1696.80,200.00 1694.80,200.00 1694.80,200.00 1696.80,200.00 1696.80,196.00"/>
    </edge>
    <edge id=":gneJ116_w1" function="walkingarea">
        <lane id=":gneJ116_w1_0" index="0" allow="pedestrian" speed="1.00" length="2.24" width="4.00" shape="1703.20,196.00 1703.20,200.00 1705.20,200.00 1705.20,200.00 1703.20,200.00"/>
    </edge>
    <edge id=":gneJ117_0" function="internal">
        <lane id=":gneJ117_0_0" index="0" disallow="pedestrian" speed="13.89" length="0.10" shape="1698.40,100.00 1698.40,100.00"/>
    </edge>
    <edge id=":gneJ117_1" function="internal">
        <lane id=":gneJ117_1_0" index="0" disallow="pedestrian" speed="13.89" length="0.10" shape="1701.60,100.00 1701.60,100.00"/>
    </edge>
    <edge id=":gneJ117_c0" function="crossing" crossingEdges="-gneE123 gneE123">
        <lane id=":gneJ117_c0_0" index="0" allow="pedestrian" speed="1.00" length="6.40" width="4.00" shape="1703.20,98.00 1696.80,98.00"/>
    </edge>
    <edge id=":gneJ117_w0" function="walkingarea">
        <lane id=":gneJ117_w0_0" index="0" allow="pedestrian" speed="1.00" length="2.24" width="4.00" shape="1696.80,100.00 1694.80,100.00 1694.80,100.00 1696.80,100.00 1696.80,96.00"/>
    </edge>
    <edge id=":gneJ117_w1" function="walkingarea">
        <lane id=":gneJ117_w1_0" index="0" allow="pedestrian" speed="1.00" length="2.24" width="4.00" shape="1703.20,96.00 1703.20,100.00 1705.20,100.00 1705.20,100.00 1703.20,100.00"/>
    </edge>
    <edge id=":gneJ118_0" function="internal">
        <lane id=":gneJ118_0_0" index="0" disallow="pedestrian" speed="6.51" length="4.75" shape="1698.40,7.20 1698.05,4.75 1697.00,3.00 1696.80,2.88"/>
    </edge>
    <edge id=":gneJ118_1" function="internal">
        <lane id=":gneJ118_1_0" index="0" disallow="pedestrian" speed="13.89" length="14.40" shape="1698.40,7.20 1698.40,-7.20"/>
    </edge>
    <edge id=":gneJ118_2" function="internal">
        <lane id=":gneJ118_2_0" index="0" disallow="pedestrian" speed="8.00" length="5.93" shape="1698.40,7.20 1698.95,3.35 1700.00,1.60"/>
    </edge>
    <edge id=":gneJ118_12" function="internal">