<?xml version="1.0" encoding="UTF-8"?>

<!-- generated on Fri 20 May 2022 08:55:39 AM PDT by Eclipse SUMO netedit Version 1.4.0
<configuration xmlns:xsi="http://www.w3.org/2001/XMLSchema-instance" xsi:noNamespaceSchemaLocation="http://sumo.dlr.de/xsd/netconvertConfiguration.xsd">

    <input>
        <sumo-net-file value="/home/hoangnv/omnetpp-6.0/workspace1/VANETTutorials/simulations/test/square.net.xml"/>
    </input>

    <output>
        <output-file value="/home/hoangnv/omnetpp-6.0/workspace1/VANETTutorials/simulations/test/square.net.xml"/>
    </output>

    <processing>
        <geometry.min-radius.fix.railways value="false"/>
        <geometry.max-grade.fix value="false"/>
        <offset.disable-normalization value="true"/>
        <lefthand value="false"/>
    </processing>

    <junctions>
        <no-internal-links value="false"/>
        <no-turnarounds value="true"/>
        <junctions.corner-detail value="5"/>
        <junctions.limit-turn-speed value="5.5"/>
        <rectangular-lane-cut value="false"/>
    </junctions>

    <pedestrian>
        <walkingareas value="false"/>
    </pedestrian>

    <netedit>
        <route-files value="/home/hoangnv/omnetpp-6.0/workspace1/VANETTutorials/simulations/test/square.rou.xml"/>
    </netedit>

    <report>
        <aggregate-warnings value="5"/>
    </report>

</configuration>
-->

<routes xmlns:xsi="http://www.w3.org/2001/XMLSchema-instance" xsi:noNamespaceSchemaLocation="http://sumo.dlr.de/xsd/routes_file.xsd">
    <route edges="gneE49 gneE52 gneE53 gneE54 -gneE68 -gneE67" color="yellow" id="route_0"/>
    <route edges="gneE142 gneE143 gneE144 gneE134 gneE135" color="yellow" id="route_1"/>
    <route edges="gneE209 gneE210 gneE211 gneE260 gneE261 gneE248 gneE249 gneE250 gneE251 gneE252 gneE253" color="yellow" id="route_2"/>
    <route edges="-gneE389 -gneE388 -gneE387 -gneE386 gneE432 gneE433 -gneE440 -gneE439 gneE427 gneE428 gneE429" color="yellow" id="route_3"/>
    <route edges="gneE4 gneE5 gneE7 gneE22 gneE23 gneE24 gneE25 gneE35 gneE36 gneE37 gneE38 gneE85 gneE86 gneE154 gneE155 gneE156 gneE157 gneE158 gneE159 gneE160 gneE218 gneE219 gneE220 gneE221 gneE222 gneE223 gneE254 gneE255 gneE324 gneE325 gneE326 gneE327 gneE328 gneE329 -gneE330 gneE331 gneE332 gneE333 gneE334 gneE335 gneE336 gneE395 gneE396 gneE404 gneE405 gneE406 gneE407 gneE408 gneE409 gneE410 -gneE454 -gneE453 -gneE452 -gneE451 gneE458 gneE459 gneE460" color="yellow" id="route_4"/>
    <person id="person_0" depart="0.00">
        <walk route="route_0" arrivalPos="0.00"/>
    </person>
    <person id="person_1" depart="0.00">
        <walk route="route_0" arrivalPos="0.00"/>
    </person>
    <person id="person_10" depart="0.00">
        <walk route="route_3" arrivalPos="0.00"/>
    </person>
    <person id="person_11" depart="0.00">
        <walk route="route_3" arrivalPos="0.00"/>
    </person>
    <person id="person_12" depart="0.00">
        <walk route="route_3" arrivalPos="0.00"/>
    </person>
    <person id="person_13" depart="0.00">
        <walk route="route_3" arrivalPos="0.00"/>
    </person>
    <person id="person_14" depart="0.00">
        <walk route="route_3" arrivalPos="0.00"/>
    </person>
    <person id="person_2" depart="0.00">
        <walk route="route_0" arrivalPos="0.00"/>
    </person>
    <person id="person_3" depart="0.00">
        <walk route="route_1" arrivalPos="0.00"/>
    </person>
    <person id="person_4" depart="0.00">
        <walk route="route_1" arrivalPos="0.00"/>
    </person>
    <person id="person_5" depart="0.00">
        <walk route="route_1" arrivalPos="0.00"/>
    </person>
    <person id="person_6" depart="0.00">
        <walk route="route_2" arrivalPos="0.00"/>
    </person>
    <person id="person_7" depart="0.00">
        <walk route="route_2" arrivalPos="0.00"/>
    </person>
    <person id="person_8" depart="0.00">
        <walk route="route_2" arrivalPos="0.00"/>
    </person>
    <person id="person_9" depart="0.00">
        <walk route="route_3" arrivalPos="0.00"/>
    </person>
    <vehicle id="vehicle_0" depart="0.00" route="route_4"/>
</routes>
